data_bcc_bulk
_audit_creation_date              2025-03-04
_audit_creation_method            'Materials Studio'
_symmetry_space_group_name_H-M    'P1'
_symmetry_Int_Tables_number       1
_symmetry_cell_setting            triclinic
loop_
_symmetry_equiv_pos_as_xyz
  x,y,z
_cell_length_a                    9.8144
_cell_length_b                    9.8144
_cell_length_c                    9.8144
_cell_angle_alpha                 90.0000
_cell_angle_beta                  90.0000
_cell_angle_gamma                 90.0000
loop_
_atom_site_label
_atom_site_type_symbol
_atom_site_fract_x
_atom_site_fract_y
_atom_site_fract_z
_atom_site_U_iso_or_equiv
_atom_site_adp_type
_atom_site_occupancy
Au1    Au    0.00000   0.00000   0.00000   0.00000  Uiso   1.00
Au2    Au    0.16667   0.16667   0.16667   0.00000  Uiso   1.00
Au3    Au    0.33333   0.00000   0.00000   0.00000  Uiso   1.00
Au4    Au    0.50000   0.16667   0.16667   0.00000  Uiso   1.00
Au5    Au    0.66667   0.00000   0.00000   0.00000  Uiso   1.00
Au6    Au    0.83333   0.16667   0.16667   0.00000  Uiso   1.00
Au7    Au    0.00000   0.33333   0.00000   0.00000  Uiso   1.00
Au8    Au    0.16667   0.50000   0.16667   0.00000  Uiso   1.00
Au9    Au    0.33333   0.33333   0.00000   0.00000  Uiso   1.00
Au10   Au    0.50000   0.50000   0.16667   0.00000  Uiso   1.00
Au11   Au    0.66667   0.33333   0.00000   0.00000  Uiso   1.00
Au12   Au    0.83333   0.50000   0.16667   0.00000  Uiso   1.00
Au13   Au    0.00000   0.66667   0.00000   0.00000  Uiso   1.00
Au14   Au    0.16667   0.83333   0.16667   0.00000  Uiso   1.00
Au15   Au    0.33333   0.66667   0.00000   0.00000  Uiso   1.00
Au16   Au    0.50000   0.83333   0.16667   0.00000  Uiso   1.00
Au17   Au    0.66667   0.66667   0.00000   0.00000  Uiso   1.00
Au18   Au    0.83333   0.83333   0.16667   0.00000  Uiso   1.00
Au19   Au    0.00000   0.00000   0.33333   0.00000  Uiso   1.00
Au20   Au    0.16667   0.16667   0.50000   0.00000  Uiso   1.00
Au21   Au    0.33333   0.00000   0.33333   0.00000  Uiso   1.00
Au22   Au    0.50000   0.16667   0.50000   0.00000  Uiso   1.00
Au23   Au    0.66667   0.00000   0.33333   0.00000  Uiso   1.00
Au24   Au    0.83333   0.16667   0.50000   0.00000  Uiso   1.00
Au25   Au    0.00000   0.33333   0.33333   0.00000  Uiso   1.00
Au26   Au    0.16667   0.50000   0.50000   0.00000  Uiso   1.00
Au27   Au    0.33333   0.33333   0.33333   0.00000  Uiso   1.00
Au28   Au    0.50000   0.50000   0.50000   0.00000  Uiso   1.00
Au29   Au    0.66667   0.33333   0.33333   0.00000  Uiso   1.00
Au30   Au    0.83333   0.50000   0.50000   0.00000  Uiso   1.00
Au31   Au    0.00000   0.66667   0.33333   0.00000  Uiso   1.00
Au32   Au    0.16667   0.83333   0.50000   0.00000  Uiso   1.00
Au33   Au    0.33333   0.66667   0.33333   0.00000  Uiso   1.00
Au34   Au    0.50000   0.83333   0.50000   0.00000  Uiso   1.00
Au35   Au    0.66667   0.66667   0.33333   0.00000  Uiso   1.00
Au36   Au    0.83333   0.83333   0.50000   0.00000  Uiso   1.00
Au37   Au    0.00000   0.00000   0.66667   0.00000  Uiso   1.00
Au38   Au    0.16667   0.16667   0.83333   0.00000  Uiso   1.00
Au39   Au    0.33333   0.00000   0.66667   0.00000  Uiso   1.00
Au40   Au    0.50000   0.16667   0.83333   0.00000  Uiso   1.00
Au41   Au    0.66667   0.00000   0.66667   0.00000  Uiso   1.00
Au42   Au    0.83333   0.16667   0.83333   0.00000  Uiso   1.00
Au43   Au    0.00000   0.33333   0.66667   0.00000  Uiso   1.00
Au44   Au    0.16667   0.50000   0.83333   0.00000  Uiso   1.00
Au45   Au    0.33333   0.33333   0.66667   0.00000  Uiso   1.00
Au46   Au    0.50000   0.50000   0.83333   0.00000  Uiso   1.00
Au47   Au    0.66667   0.33333   0.66667   0.00000  Uiso   1.00
Au48   Au    0.83333   0.50000   0.83333   0.00000  Uiso   1.00
Au49   Au    0.00000   0.66667   0.66667   0.00000  Uiso   1.00
Au50   Au    0.16667   0.83333   0.83333   0.00000  Uiso   1.00
Au51   Au    0.33333   0.66667   0.66667   0.00000  Uiso   1.00
Au52   Au    0.50000   0.83333   0.83333   0.00000  Uiso   1.00
Au53   Au    0.66667   0.66667   0.66667   0.00000  Uiso   1.00
Au54   Au    0.83333   0.83333   0.83333   0.00000  Uiso   1.00
