data_image0
_chemical_formula_structural       Au112
_chemical_formula_sum              "Au112"
_cell_length_a       11.9045
_cell_length_b       18.8227
_cell_length_c       37.4392
_cell_angle_alpha    90.0
_cell_angle_beta     90.0
_cell_angle_gamma    108.43490000000001

_space_group_name_H-M_alt    "P 1"
_space_group_IT_number       1

loop_
  _space_group_symop_operation_xyz
  'x, y, z'

loop_
  _atom_site_type_symbol
  _atom_site_label
  _atom_site_symmetry_multiplicity
  _atom_site_fract_x
  _atom_site_fract_y
  _atom_site_fract_z
  _atom_site_occupancy
  Au  Au1       1.0  0.16868884474580845  0.33737622048762117  0.06305906361909626  1.0000
  Au  Au2       1.0  0.053587767891020974  0.1071739624233126  0.09575646257193704  1.0000
  Au  Au3       1.0  0.444148512982305  0.38829596197785826  0.13792999719516302  1.0000
  Au  Au4       1.0  0.33188223823265134  0.16376344983171826  0.1775200555063173  1.0000
  Au  Au5       1.0  0.22421893011766403  0.44843691089639265  0.21016669213461805  1.0000
  Au  Au6       1.0  0.11166822977112907  0.2233357311110118  0.2524312557562546  1.0000
  Au  Au7       1.0  0.9952894023663391  0.9905773007903205  0.2845716751857286  1.0000
  Au  Au8       1.0  0.2269334002607787  0.20386553953812556  0.0476783676699162  1.0000
  Au  Au9       1.0  0.11055402128077987  0.47110694581745566  0.07981871183147772  1.0000
  Au  Au10      1.0  0.9980035840782957  0.24600569700082137  0.12208335074675082  1.0000
  Au  Au11      1.0  0.39034090107445363  0.030679636042459726  0.15472994501053325  1.0000
  Au  Au12      1.0  0.27807429833836367  0.30614694993582364  0.194319976243519  1.0000
  Au  Au13      1.0  0.16863543726341215  0.0872687841852705  0.23649343659041083  1.0000
  Au  Au14      1.0  0.0535341928431383  0.3570668569353769  0.2691909279882162  1.0000
  Au  Au15      1.0  0.47693339829762954  0.20386553915244224  0.04767836718543525  1.0000
  Au  Au16      1.0  0.3605540101170904  0.4711069432586985  0.07981871346901157  1.0000
  Au  Au17      1.0  0.24800358537767744  0.24600572460947048  0.12208338007518642  1.0000
  Au  Au18      1.0  0.1403409021278177  0.030679639120127965  0.15472994541890228  1.0000
  Au  Au19      1.0  0.028074084342499105  0.306146913667857  0.19431993107581733  1.0000
  Au  Au20      1.0  0.41863543666959385  0.08726877943756711  0.23649343673705459  1.0000
  Au  Au21      1.0  0.3035341785324247  0.35706686386919456  0.2691909535751042  1.0000
  Au  Au22      1.0  0.4186888404409426  0.33737621810074564  0.06305906278271835  1.0000
  Au  Au23      1.0  0.303587765395416  0.10717396549942752  0.0957564628833118  1.0000
  Au  Au24      1.0  0.19414850455388322  0.38829595058823574  0.13793000567878813  1.0000
  Au  Au25      1.0  0.08188224541885451  0.163763467516221  0.17752005912350602  1.0000
  Au  Au26      1.0  0.4742189855629285  0.44843696585339415  0.21016669490204887  1.0000
  Au  Au27      1.0  0.36166824509617596  0.22333570313130074  0.25243127959729367  1.0000
  Au  Au28      1.0  0.24528940124904844  0.9905773011645973  0.2845716750254361  1.0000
  Au  Au29      1.0  0.16868884082443888  0.8373762179020192  0.06305906247361448  1.0000
  Au  Au30      1.0  0.05358776674587566  0.6071739659977874  0.09575646278009566  1.0000
  Au  Au31      1.0  0.44414852304681457  0.8882959656543283  0.13792999414903817  1.0000
  Au  Au32      1.0  0.33188224245521997  0.663763443888874  0.177520054770496  1.0000
  Au  Au33      1.0  0.2242190005210332  0.9484369716348329  0.2101666956360566  1.0000
  Au  Au34      1.0  0.1116682527629796  0.7233356995469685  0.25243128295045897  1.0000
  Au  Au35      1.0  0.9952894047156045  0.49057729654403537  0.2845716763131158  1.0000
  Au  Au36      1.0  0.22693339884463562  0.7038655392152549  0.04767836726802503  1.0000
  Au  Au37      1.0  0.11055401264241799  0.9711069443574794  0.07981871272332386  1.0000
  Au  Au38      1.0  0.9980035810930568  0.7460057225394984  0.12208337797796258  1.0000
  Au  Au39      1.0  0.3903408969422446  0.5306796326581567  0.15472994705075707  1.0000
  Au  Au40      1.0  0.2780744555734895  0.8061469489845402  0.1943199751763243  1.0000
  Au  Au41      1.0  0.1686354430659258  0.5872687781733145  0.23649343634591186  1.0000
  Au  Au42      1.0  0.05353418335988882  0.8570668643049673  0.26919095736659465  1.0000
  Au  Au43      1.0  0.4769333987585259  0.7038655391840191  0.04767836729613678  1.0000
  Au  Au44      1.0  0.36055401228988365  0.9711069442920449  0.07981871268694612  1.0000
  Au  Au45      1.0  0.24800358121265548  0.7460057225148212  0.12208337798675971  1.0000
  Au  Au46      1.0  0.14034091074285185  0.5306796367878142  0.15472994608406299  1.0000
  Au  Au47      1.0  0.02807445566108626  0.8061469490282805  0.19431997517706293  1.0000
  Au  Au48      1.0  0.41863543443364337  0.5872687760760695  0.23649343615632673  1.0000
  Au  Au49      1.0  0.3035341833258153  0.8570668642970558  0.2691909573761199  1.0000
  Au  Au50      1.0  0.4186888407409878  0.8373762178185676  0.0630590624598656  1.0000
  Au  Au51      1.0  0.30358776616426036  0.6071739650614887  0.09575646279612003  1.0000
  Au  Au52      1.0  0.19414852312499106  0.8882959657171213  0.13792999417071403  1.0000
  Au  Au53      1.0  0.08188224264223493  0.66376344458851  0.17752005454013223  1.0000
  Au  Au54      1.0  0.4742189998857595  0.9484369709328858  0.2101666957895209  1.0000
  Au  Au55      1.0  0.3616682522823425  0.723335699076779  0.25243128288696853  1.0000
  Au  Au56      1.0  0.24528939654455345  0.4905772970612889  0.2845716710971765  1.0000
  Au  Au57      1.0  0.6686888390295397  0.33737621778779725  0.06305906169421334  1.0000
  Au  Au58      1.0  0.5535877636358754  0.10717396436898127  0.09575646228695138  1.0000
  Au  Au59      1.0  0.9441484934637023  0.38829601135060093  0.1379299679616559  1.0000
  Au  Au60      1.0  0.8318821792615497  0.1637633912064372  0.1775200477771829  1.0000
  Au  Au61      1.0  0.724218996362581  0.4484369775258216  0.21016669650822362  1.0000
  Au  Au62      1.0  0.6116682457339851  0.223335696316111  0.2524312859479465  1.0000
  Au  Au63      1.0  0.49528940117945996  0.9905773006822193  0.284571675448267  1.0000
  Au  Au64      1.0  0.7269333973159875  0.20386553850519462  0.047678366196864885  1.0000
  Au  Au65      1.0  0.6105540111823025  0.4711069446375171  0.07981871256394298  1.0000
  Au  Au66      1.0  0.4980035773487874  0.24600572250231797  0.1220833779534824  1.0000
  Au  Au67      1.0  0.8903409109966616  0.030679633871863263  0.1547299448199306  1.0000
  Au  Au68      1.0  0.7780742984105606  0.3061469504915402  0.19431997629125877  1.0000
  Au  Au69      1.0  0.6686354348963057  0.08726877706774998  0.23649343821891156  1.0000
  Au  Au70      1.0  0.5535341803032234  0.3570668643176737  0.26919095730743303  1.0000
  Au  Au71      1.0  0.9769333975855983  0.20386553557915904  0.04767836039590115  1.0000
  Au  Au72      1.0  0.8605540086227299  0.47110694847523493  0.07981871002947588  1.0000
  Au  Au73      1.0  0.748003575706494  0.24600572082492012  0.12208337642891148  1.0000
  Au  Au74      1.0  0.6403408924899635  0.030679628659761402  0.1547299439205015  1.0000
  Au  Au75      1.0  0.528074418448309  0.3061469492104311  0.1943199753778994  1.0000
  Au  Au76      1.0  0.9186354442212932  0.08726878007277417  0.23649343737227316  1.0000
  Au  Au77      1.0  0.8035341857165818  0.35706686466650844  0.2691909596352732  1.0000
  Au  Au78      1.0  0.9186888388327027  0.33737621646208177  0.06305905845521623  1.0000
  Au  Au79      1.0  0.8035877612303002  0.10717396206864956  0.09575646132541624  1.0000
  Au  Au80      1.0  0.6941485096853421  0.3882959691897674  0.13792999139448126  1.0000
  Au  Au81      1.0  0.5818822277782351  0.1637634389202537  0.17752005373109375  1.0000
  Au  Au82      1.0  0.9742190058213438  0.4484369962987169  0.21016669831275742  1.0000
  Au  Au83      1.0  0.8616682384845034  0.22333568669737386  0.2524312957375848  1.0000
  Au  Au84      1.0  0.7452894021609551  0.9905773008234  0.2845716753552755  1.0000
  Au  Au85      1.0  0.6686888407947035  0.8373762178011389  0.06305906244089213  1.0000
  Au  Au86      1.0  0.5535877650558287  0.6071739650020521  0.095756462847149  1.0000
  Au  Au87      1.0  0.9441485233285385  0.8882959657352203  0.13792999415979817  1.0000
  Au  Au88      1.0  0.8318822414591271  0.6637634446759845  0.1775200545850097  1.0000
  Au  Au89      1.0  0.7242190011133479  0.9484369710307609  0.21016669585650447  1.0000
  Au  Au90      1.0  0.6116682527800239  0.7233356996018926  0.25243128293309847  1.0000
  Au  Au91      1.0  0.4952893995652458  0.49057729974151826  0.2845716745496362  1.0000
  Au  Au92      1.0  0.7269333987379891  0.703865539217747  0.04767836726845717  1.0000
  Au  Au93      1.0  0.6105540119363411  0.971106943880657  0.0798187125103127  1.0000
  Au  Au94      1.0  0.49800358101916264  0.7460057224224278  0.12208337797224621  1.0000
  Au  Au95      1.0  0.8903409018207729  0.5306796417075825  0.15472994537943274  1.0000
  Au  Au96      1.0  0.7780744555684622  0.8061469489732113  0.19431997517812258  1.0000
  Au  Au97      1.0  0.6686354378722578  0.5872687790503792  0.23649343657340074  1.0000
  Au  Au98      1.0  0.5535341832443538  0.8570668642636861  0.26919095737261817  1.0000
  Au  Au99      1.0  0.9769333987831608  0.7038655392141219  0.0476783672559895  1.0000
  Au  Au100     1.0  0.8605540125427541  0.9711069438851431  0.07981871255947941  1.0000
  Au  Au101     1.0  0.7480035810228591  0.7460057224642567  0.12208337798842031  1.0000
  Au  Au102     1.0  0.6403409005501464  0.5306796364371602  0.15472994517810046  1.0000
  Au  Au103     1.0  0.5280744556818403  0.806146949010418  0.1943199751999448  1.0000
  Au  Au104     1.0  0.9186354382872609  0.5872687804201644  0.23649343679220117  1.0000
  Au  Au105     1.0  0.8035341833683587  0.8570668643098179  0.2691909573840008  1.0000
  Au  Au106     1.0  0.9186888408920317  0.8373762178182201  0.06305906246591471  1.0000
  Au  Au107     1.0  0.8035877652072234  0.6071739657563976  0.09575646258552105  1.0000
  Au  Au108     1.0  0.6941485229190071  0.8882959652182878  0.1379299941400019  1.0000
  Au  Au109     1.0  0.5818822408175163  0.6637634436610299  0.1775200545659968  1.0000
  Au  Au110     1.0  0.9742190012783154  0.9484369714963646  0.21016669569281657  1.0000
  Au  Au111     1.0  0.8616682526208007  0.7233356994446786  0.25243128296320855  1.0000
  Au  Au112     1.0  0.7452894013499752  0.4905773009065668  0.2845716756220728  1.0000
